/*--------------------------------*- C++ -*----------------------------------*\
| =========                 |                                                 |
| \\      /  F ield         | OpenFOAM: The Open Source CFD Toolbox           |
|  \\    /   O peration     | Version:  v1812                                 |
|   \\  /    A nd           | Web:      www.OpenFOAM.com                      |
|    \\/     M anipulation  |                                                 |
\*---------------------------------------------------------------------------*/
FoamFile
{
    version     2.0;
    format      ascii;
    class       volScalarField;
    object      epsilon;
}
// * * * * * * * * * * * * * * * * * * * * * * * * * * * * * * * * * * * * * //

dimensions      [ 0 2 -3 0 0 0 0 ];

internalField   uniform 25.36457;

boundaryField
{
    #includeEtc "caseDicts/setConstraintTypes"

    overset
    {
        type            overset;
	value		$internalField;
    }

    wing
    {
        type            epsilonWallFunction;
        value           $internalField;
    }

    outlet
    {
        type            inletOutlet;
        inletValue      $internalField;
        value           $internalField;
    }

    inlet
    {
        type            turbulentMixingLengthDissipationRateInlet;
        mixingLength    0.001;       // 1cm - half channel height
        value           $internalField;
    }

    topAndBottom
    {
        type            zeroGradient;
    }

}

// ************************************************************************* //
