/*--------------------------------*- C++ -*----------------------------------*\
| =========                 |                                                 |
| \\      /  F ield         | OpenFOAM: The Open Source CFD Toolbox           |
|  \\    /   O peration     | Version:  plus                                  |
|   \\  /    A nd           | Web:      www.OpenFOAM.com                      |
|    \\/     M anipulation  |                                                 |
\*---------------------------------------------------------------------------*/
FoamFile
{
    version     2.0;
    format      ascii;
    class       dictionary;
    object      blockMeshDict;
}

// * * * * * * * * * * * * * * * * * * * * * * * * * * * * * * * * * * * * * //

scale   1;

vertices
(
    (-1 -1 -0.5)
    ( 2 -1 -0.5)
    ( 2  1 -0.5)
    (-1  1 -0.5)
    (-1 -1  0.5)
    ( 2 -1  0.5)
    ( 2 1  0.5)
    (-1  1  0.5)
);

blocks
(
    hex (0 1 2 3 4 5 6 7) (30 20 1) simpleGrading (1 1 1)
);

edges
(
);

boundary
(
    wing
    {
        type wall;
        faces ();
    }
    
    overset
    {
        type overset;
        faces
        (
            (3 7 6 2)
            (1 5 4 0)
            (0 4 7 3)
            (2 6 5 1)
        );
    }

    symFront
    {
        type symmetryPlane;
        faces
        (
            (4 5 6 7)
        );
    }

    symBack
    {
        type symmetryPlane;
        faces
        (
            (0 3 2 1)
        );
    }
);

mergePatchPairs
(
);

// ************************************************************************* //
